Version 4
SHEET 1 1044 680
WIRE 512 48 512 32
WIRE 768 64 768 32
WIRE 768 80 768 64
WIRE 176 96 144 96
WIRE 464 112 432 112
WIRE 576 128 576 112
WIRE 128 144 128 128
WIRE 128 160 128 144
WIRE 400 160 400 144
WIRE 576 160 576 128
WIRE -64 176 -80 176
WIRE -32 176 -64 176
WIRE 64 176 64 96
WIRE 64 176 48 176
WIRE 96 176 64 176
WIRE 400 176 400 160
WIRE 512 176 512 48
WIRE 544 176 512 176
WIRE 176 192 176 96
WIRE 176 192 160 192
WIRE 192 192 176 192
WIRE 352 192 352 112
WIRE 352 192 336 192
WIRE 368 192 352 192
WIRE 656 192 608 192
WIRE 768 192 768 160
WIRE -176 208 -176 176
WIRE 96 208 48 208
WIRE 464 208 464 112
WIRE 464 208 432 208
WIRE 544 208 464 208
WIRE -176 224 -176 208
WIRE 368 224 336 224
WIRE 128 240 128 224
WIRE 48 256 48 208
WIRE 128 256 128 240
WIRE 336 256 336 224
WIRE 400 256 400 240
WIRE 576 256 576 224
WIRE 400 272 400 256
WIRE 576 272 576 256
WIRE 656 304 656 192
WIRE 656 304 448 304
WIRE -176 336 -176 304
WIRE 112 336 112 320
WIRE 160 416 112 416
WIRE 448 416 448 304
WIRE 496 416 448 416
WIRE 592 416 576 416
WIRE 736 416 704 416
WIRE 896 416 848 416
WIRE 112 512 112 496
FLAG 48 256 0
FLAG 160 416 0
FLAG 112 320 vcc
FLAG 112 512 vee
FLAG 128 144 vcc
FLAG 400 160 vcc
FLAG 128 240 vee
FLAG 400 256 vee
FLAG 336 256 0
FLAG -176 336 0
FLAG -176 208 vin
FLAG -64 176 vin
FLAG 576 128 vcc
FLAG 576 256 vee
FLAG 768 192 0
FLAG 768 64 vref
FLAG 512 48 vref
SYMBOL OpAmps\\opamp2 128 128 R0
SYMATTR InstName U1
SYMATTR Value LF347
SYMBOL OpAmps\\opamp2 400 144 R0
SYMATTR InstName U2
SYMATTR Value LF347
SYMBOL res 64 160 R90
WINDOW 0 0 56 VBottom 2
WINDOW 3 32 56 VTop 2
SYMATTR InstName R1
SYMATTR Value 1k
SYMBOL res 160 80 R90
WINDOW 0 0 56 VBottom 2
WINDOW 3 32 56 VTop 2
SYMATTR InstName R2
SYMATTR Value 100k
SYMBOL res 352 176 R90
WINDOW 0 0 56 VBottom 2
WINDOW 3 32 56 VTop 2
SYMATTR InstName R3
SYMATTR Value 1k
SYMBOL voltage 112 320 R0
WINDOW 123 0 0 Left 0
WINDOW 39 0 0 Left 0
SYMATTR InstName V1
SYMATTR Value 10
SYMBOL voltage 112 400 R0
WINDOW 123 0 0 Left 0
WINDOW 39 0 0 Left 0
SYMATTR InstName V2
SYMATTR Value 10
SYMBOL res 448 96 R90
WINDOW 0 0 56 VBottom 2
WINDOW 3 32 56 VTop 2
SYMATTR InstName R4
SYMATTR Value 100k
SYMBOL voltage -176 208 R0
WINDOW 123 0 0 Left 0
WINDOW 39 0 0 Left 0
SYMATTR InstName V3
SYMATTR Value PULSE(0 1m 0 0 0 12.5u 25u)
SYMBOL cap 256 176 R90
WINDOW 0 0 32 VBottom 2
WINDOW 3 32 32 VTop 2
SYMATTR InstName C1
SYMATTR Value 1u
SYMBOL CD4000\\CD40106B 640 368 R0
SYMATTR InstName U3
SYMATTR SpiceLine VDD=3.3  SPEED=1.0  TRIPDT=5e-9
SYMBOL CD4000\\CD40106B 784 368 R0
SYMATTR InstName U4
SYMATTR SpiceLine VDD=3.3  SPEED=1.0  TRIPDT=5e-9
SYMBOL res 592 400 R90
WINDOW 0 0 56 VBottom 2
WINDOW 3 32 56 VTop 2
SYMATTR InstName R5
SYMATTR Value 10k
SYMBOL OpAmps\\opamp2 576 128 R0
SYMATTR InstName U5
SYMATTR Value LF347
SYMBOL voltage 768 64 R0
WINDOW 123 0 0 Left 0
WINDOW 39 0 0 Left 0
SYMATTR InstName V4
SYMATTR Value 2
TEXT -32 48 Left 2 !.lib LF347.301
TEXT -208 432 Left 2 !.tran 0 7m 6m
TEXT -80 432 Left 2 !.lib cd4000.lib
